Alim_Meia_Ponte_5_REDUZIDO/OBSOLETOS/5002086/Reactor.dss
New "Reactor.trf_5286699a_r" phases=1 bus1=82034475286699.4 R=15 X=0 basefreq=60
New "Reactor.trf_5286707a_r" phases=1 bus1=82034835286707.4 R=15 X=0 basefreq=60
New "Reactor.trf_5286708a_r" phases=1 bus1=82034845286708.4 R=15 X=0 basefreq=60
New "Reactor.trf_5286718a_r" phases=1 bus1=82053655286718.4 R=15 X=0 basefreq=60
New "Reactor.trf_5286787a_r" phases=1 bus1=82023305286787.4 R=15 X=0 basefreq=60
New "Reactor.trf_5286788a_r" phases=1 bus1=82023395286788.4 R=15 X=0 basefreq=60
New "Reactor.trf_5286789a_r" phases=1 bus1=82022295286789.4 R=15 X=0 basefreq=60
New "Reactor.trf_5286790a_r" phases=1 bus1=82022455286790.4 R=15 X=0 basefreq=60
New "Reactor.trf_5286791a_r" phases=1 bus1=82022605286791.4 R=15 X=0 basefreq=60
New "Reactor.trf_5286792a_r" phases=1 bus1=82019965286792.4 R=15 X=0 basefreq=60
New "Reactor.trf_5286793a_r" phases=1 bus1=82020055286793.4 R=15 X=0 basefreq=60
New "Reactor.trf_5286794a_r" phases=1 bus1=82020175286794.4 R=15 X=0 basefreq=60
New "Reactor.trf_5286795a_r" phases=1 bus1=82020405286795.4 R=15 X=0 basefreq=60
New "Reactor.trf_5286796a_r" phases=1 bus1=82020555286796.4 R=15 X=0 basefreq=60
New "Reactor.trf_5286797a_r" phases=1 bus1=82020675286797.4 R=15 X=0 basefreq=60
New "Reactor.trf_5286798a_r" phases=1 bus1=82021885286798.4 R=15 X=0 basefreq=60
New "Reactor.trf_5286799a_r" phases=1 bus1=82021995286799.4 R=15 X=0 basefreq=60
New "Reactor.trf_5286800a_r" phases=1 bus1=82024325286800.4 R=15 X=0 basefreq=60
New "Reactor.trf_5286801a_r" phases=1 bus1=82022225286801.4 R=15 X=0 basefreq=60
New "Reactor.trf_5286802a_r" phases=1 bus1=82021615286802.4 R=15 X=0 basefreq=60
New "Reactor.trf_5286803a_r" phases=1 bus1=82036745286803.4 R=15 X=0 basefreq=60
New "Reactor.trf_5286804a_r" phases=1 bus1=82033055286804.4 R=15 X=0 basefreq=60
New "Reactor.trf_5286805a_r" phases=1 bus1=82033395286805.4 R=15 X=0 basefreq=60
New "Reactor.trf_5286806a_r" phases=1 bus1=82024965286806.4 R=15 X=0 basefreq=60
New "Reactor.trf_5286807a_r" phases=1 bus1=90855665286807.4 R=15 X=0 basefreq=60
New "Reactor.trf_5286808a_r" phases=1 bus1=82027905286808.4 R=15 X=0 basefreq=60
New "Reactor.trf_5286809a_r" phases=1 bus1=82028045286809.4 R=15 X=0 basefreq=60
New "Reactor.trf_5286810a_r" phases=1 bus1=82028035286810.4 R=15 X=0 basefreq=60
New "Reactor.trf_5286811a_r" phases=1 bus1=82026685286811.4 R=15 X=0 basefreq=60
New "Reactor.trf_5286812a_r" phases=1 bus1=82026915286812.4 R=15 X=0 basefreq=60
New "Reactor.trf_5286813a_r" phases=1 bus1=82028365286813.4 R=15 X=0 basefreq=60
New "Reactor.trf_5286814a_r" phases=1 bus1=82027655286814.4 R=15 X=0 basefreq=60
New "Reactor.trf_5286815a_r" phases=1 bus1=82027735286815.4 R=15 X=0 basefreq=60
New "Reactor.trf_5286816a_r" phases=1 bus1=82029355286816.4 R=15 X=0 basefreq=60
New "Reactor.trf_5286817a_r" phases=1 bus1=82029275286817.4 R=15 X=0 basefreq=60
New "Reactor.trf_5286818a_r" phases=1 bus1=82028855286818.4 R=15 X=0 basefreq=60
New "Reactor.trf_5286819a_r" phases=1 bus1=82027135286819.4 R=15 X=0 basefreq=60
New "Reactor.trf_5286820a_r" phases=1 bus1=82026625286820.4 R=15 X=0 basefreq=60
New "Reactor.trf_5286821a_r" phases=1 bus1=82025745286821.4 R=15 X=0 basefreq=60
New "Reactor.trf_5286828a_r" phases=1 bus1=82042655286828.4 R=15 X=0 basefreq=60
New "Reactor.trf_5286829a_r" phases=1 bus1=81490995286829.4 R=15 X=0 basefreq=60
New "Reactor.trf_5286830a_r" phases=1 bus1=81460505286830.4 R=15 X=0 basefreq=60
New "Reactor.trf_5286831a_r" phases=1 bus1=82043025286831.4 R=15 X=0 basefreq=60
New "Reactor.trf_5286832a_r" phases=1 bus1=82042575286832.4 R=15 X=0 basefreq=60
New "Reactor.trf_5286833a_r" phases=1 bus1=82041995286833.4 R=15 X=0 basefreq=60
New "Reactor.trf_5286834a_r" phases=1 bus1=82038095286834.4 R=15 X=0 basefreq=60
New "Reactor.trf_5286835a_r" phases=1 bus1=82038115286835.4 R=15 X=0 basefreq=60
New "Reactor.trf_5286836a_r" phases=1 bus1=82041105286836.4 R=15 X=0 basefreq=60
New "Reactor.trf_5286837a_r" phases=1 bus1=82041215286837.4 R=15 X=0 basefreq=60
New "Reactor.trf_5286838a_r" phases=1 bus1=82041905286838.4 R=15 X=0 basefreq=60
New "Reactor.trf_5286839a_r" phases=1 bus1=82038825286839.4 R=15 X=0 basefreq=60
New "Reactor.trf_5286840a_r" phases=1 bus1=82037555286840.4 R=15 X=0 basefreq=60
New "Reactor.trf_5286841a_r" phases=1 bus1=82039455286841.4 R=15 X=0 basefreq=60
New "Reactor.trf_5286842a_r" phases=1 bus1=82039695286842.4 R=15 X=0 basefreq=60
New "Reactor.trf_5286843a_r" phases=1 bus1=82042105286843.4 R=15 X=0 basefreq=60
New "Reactor.trf_5286844a_r" phases=1 bus1=82042165286844.4 R=15 X=0 basefreq=60
New "Reactor.trf_5286845a_r" phases=1 bus1=82042275286845.4 R=15 X=0 basefreq=60
New "Reactor.trf_5286846a_r" phases=1 bus1=82041545286846.4 R=15 X=0 basefreq=60
New "Reactor.trf_5286857a_r" phases=1 bus1=82062475286857.4 R=15 X=0 basefreq=60
New "Reactor.trf_5286858a_r" phases=1 bus1=82064145286858.4 R=15 X=0 basefreq=60
New "Reactor.trf_5286860a_r" phases=1 bus1=82065235286860.4 R=15 X=0 basefreq=60
New "Reactor.trf_5286861a_r" phases=1 bus1=82064065286861.4 R=15 X=0 basefreq=60
New "Reactor.trf_5286862a_r" phases=1 bus1=82065285286862.4 R=15 X=0 basefreq=60
New "Reactor.trf_5286863a_r" phases=1 bus1=82064825286863.4 R=15 X=0 basefreq=60
New "Reactor.trf_5286864a_r" phases=1 bus1=82064425286864.4 R=15 X=0 basefreq=60
New "Reactor.trf_5286865a_r" phases=1 bus1=82065005286865.4 R=15 X=0 basefreq=60
New "Reactor.trf_5286866a_r" phases=1 bus1=82063385286866.4 R=15 X=0 basefreq=60
New "Reactor.trf_5286867a_r" phases=1 bus1=82044385286867.4 R=15 X=0 basefreq=60
New "Reactor.trf_5286871a_r" phases=1 bus1=82055725286871.4 R=15 X=0 basefreq=60
New "Reactor.trf_5286872a_r" phases=1 bus1=82054825286872.4 R=15 X=0 basefreq=60
New "Reactor.trf_5286890a_r" phases=1 bus1=82056915286890.4 R=15 X=0 basefreq=60
New "Reactor.trf_5286891a_r" phases=1 bus1=82056385286891.4 R=15 X=0 basefreq=60
New "Reactor.trf_5286914a_r" phases=1 bus1=82053635286914.4 R=15 X=0 basefreq=60
New "Reactor.trf_5286915a_r" phases=1 bus1=82054535286915.4 R=15 X=0 basefreq=60
New "Reactor.trf_5286916a_r" phases=1 bus1=82054235286916.4 R=15 X=0 basefreq=60
New "Reactor.trf_5286917a_r" phases=1 bus1=82054305286917.4 R=15 X=0 basefreq=60
New "Reactor.trf_5286918a_r" phases=1 bus1=82053975286918.4 R=15 X=0 basefreq=60
New "Reactor.trf_5286919a_r" phases=1 bus1=82060535286919.4 R=15 X=0 basefreq=60
New "Reactor.trf_5286930a_r" phases=1 bus1=82049375286930.4 R=15 X=0 basefreq=60
New "Reactor.trf_5286931a_r" phases=1 bus1=82049545286931.4 R=15 X=0 basefreq=60
New "Reactor.trf_5286932a_r" phases=1 bus1=82049765286932.4 R=15 X=0 basefreq=60
New "Reactor.trf_5286933a_r" phases=1 bus1=82049805286933.4 R=15 X=0 basefreq=60
New "Reactor.trf_5286934a_r" phases=1 bus1=82049885286934.4 R=15 X=0 basefreq=60
New "Reactor.trf_5286935a_r" phases=1 bus1=82050325286935.4 R=15 X=0 basefreq=60
New "Reactor.trf_5286936a_r" phases=1 bus1=82049975286936.4 R=15 X=0 basefreq=60
New "Reactor.trf_5286937a_r" phases=1 bus1=82050035286937.4 R=15 X=0 basefreq=60
New "Reactor.trf_5286938a_r" phases=1 bus1=82050465286938.4 R=15 X=0 basefreq=60
New "Reactor.trf_5286939a_r" phases=1 bus1=82039815286939.4 R=15 X=0 basefreq=60
New "Reactor.trf_5286940a_r" phases=1 bus1=82039945286940.4 R=15 X=0 basefreq=60
New "Reactor.trf_5286941a_r" phases=1 bus1=82040015286941.4 R=15 X=0 basefreq=60
New "Reactor.trf_5286942a_r" phases=1 bus1=82040165286942.4 R=15 X=0 basefreq=60
New "Reactor.trf_5286943a_r" phases=1 bus1=82040265286943.4 R=15 X=0 basefreq=60
New "Reactor.trf_5286944a_r" phases=1 bus1=82039725286944.4 R=15 X=0 basefreq=60
New "Reactor.trf_5286945a_r" phases=1 bus1=82040415286945.4 R=15 X=0 basefreq=60
New "Reactor.trf_5286946a_r" phases=1 bus1=82040575286946.4 R=15 X=0 basefreq=60
New "Reactor.trf_5440862a_r" phases=1 bus1=81479715440862.4 R=15 X=0 basefreq=60
New "Reactor.trf_5469845a_r" phases=1 bus1=82032105469845.4 R=15 X=0 basefreq=60
New "Reactor.trf_5470133a_r" phases=1 bus1=82034125470133.4 R=15 X=0 basefreq=60
New "Reactor.trf_5472282a_r" phases=1 bus1=87774405472282.4 R=15 X=0 basefreq=60
New "Reactor.trf_5479360a_r" phases=1 bus1=81460535479360.4 R=15 X=0 basefreq=60
New "Reactor.trf_5491509a_r" phases=1 bus1=88287355491509.4 R=15 X=0 basefreq=60
New "Reactor.trf_5499009a_r" phases=1 bus1=82062715499009.4 R=15 X=0 basefreq=60
New "Reactor.trf_5485359a_r" phases=1 bus1=88109845485359.4 R=15 X=0 basefreq=60
New "Reactor.trf_5502834a_r" phases=1 bus1=82026575502834.4 R=15 X=0 basefreq=60
New "Reactor.trf_5505307a_r" phases=1 bus1=82034555505307.4 R=15 X=0 basefreq=60
New "Reactor.trf_5535535a_r" phases=1 bus1=89701935535535.4 R=15 X=0 basefreq=60
New "Reactor.trf_5537656a_r" phases=1 bus1=89813615537656.4 R=15 X=0 basefreq=60
New "Reactor.trf_5547722a_r" phases=1 bus1=90017985547722.4 R=15 X=0 basefreq=60
New "Reactor.trf_5551754a_r" phases=1 bus1=82061675551754.4 R=15 X=0 basefreq=60
New "Reactor.trf_5552038a_r" phases=1 bus1=90190165552038.4 R=15 X=0 basefreq=60
New "Reactor.trf_5552309a_r" phases=1 bus1=82024125552309.4 R=15 X=0 basefreq=60
New "Reactor.trf_5552553a_r" phases=1 bus1=90214315552553.4 R=15 X=0 basefreq=60
New "Reactor.trf_5552819a_r" phases=1 bus1=82032765552819.4 R=15 X=0 basefreq=60
New "Reactor.trf_5569878a_r" phases=1 bus1=82055955569878.4 R=15 X=0 basefreq=60
New "Reactor.trf_5555964a_r" phases=1 bus1=90305705555964.4 R=15 X=0 basefreq=60
New "Reactor.trf_5557353a_r" phases=1 bus1=82044325557353.4 R=15 X=0 basefreq=60
New "Reactor.trf_5558213a_r" phases=1 bus1=90349975558213.4 R=15 X=0 basefreq=60
New "Reactor.trf_5560489a_r" phases=1 bus1=90409505560489.4 R=15 X=0 basefreq=60
New "Reactor.trf_5574596a_r" phases=1 bus1=82031945574596.4 R=15 X=0 basefreq=60
New "Reactor.trf_5577671a_r" phases=1 bus1=90938795577671.4 R=15 X=0 basefreq=60
New "Reactor.trf_5286947a_r" phases=1 bus1=82040855286947.4 R=15 X=0 basefreq=60
New "Reactor.trf_5286958a_r" phases=1 bus1=82031405286958.4 R=15 X=0 basefreq=60
New "Reactor.trf_5286959a_r" phases=1 bus1=82031445286959.4 R=15 X=0 basefreq=60
New "Reactor.trf_5286960a_r" phases=1 bus1=82033945286960.4 R=15 X=0 basefreq=60
New "Reactor.trf_5286961a_r" phases=1 bus1=97400945286961.4 R=15 X=0 basefreq=60
New "Reactor.trf_5286962a_r" phases=1 bus1=82034445286962.4 R=15 X=0 basefreq=60
New "Reactor.trf_5286963a_r" phases=1 bus1=82035255286963.4 R=15 X=0 basefreq=60
New "Reactor.trf_5286964a_r" phases=1 bus1=82036275286964.4 R=15 X=0 basefreq=60
New "Reactor.trf_5286965a_r" phases=1 bus1=82035485286965.4 R=15 X=0 basefreq=60
New "Reactor.trf_5286966a_r" phases=1 bus1=82036045286966.4 R=15 X=0 basefreq=60
New "Reactor.trf_5286967a_r" phases=1 bus1=82029725286967.4 R=15 X=0 basefreq=60
New "Reactor.trf_5647498a_r" phases=1 bus1=93119985647498.4 R=15 X=0 basefreq=60
New "Reactor.trf_5688575a_r" phases=1 bus1=82054155688575.4 R=15 X=0 basefreq=60
New "Reactor.trf_5675373a_r" phases=1 bus1=93945325675373.4 R=15 X=0 basefreq=60
New "Reactor.trf_5323939a_r" phases=1 bus1=84503635323939.4 R=15 X=0 basefreq=60
New "Reactor.trf_5702287a_r" phases=1 bus1=90017935702287.4 R=15 X=0 basefreq=60
New "Reactor.trf_5713817a_r" phases=1 bus1=82034385713817.4 R=15 X=0 basefreq=60
New "Reactor.trf_5719448a_r" phases=1 bus1=95141555719448.4 R=15 X=0 basefreq=60
New "Reactor.trf_5333902a_r" phases=1 bus1=85167275333902.4 R=15 X=0 basefreq=60
New "Reactor.trf_5740255a_r" phases=1 bus1=82056945740255.4 R=15 X=0 basefreq=60
New "Reactor.trf_5740270a_r" phases=1 bus1=96033635740270.4 R=15 X=0 basefreq=60
New "Reactor.trf_5744153a_r" phases=1 bus1=96264655744153.4 R=15 X=0 basefreq=60
New "Reactor.trf_5444435a_r" phases=1 bus1=81481405444435.4 R=15 X=0 basefreq=60
